Database/datos118n.m
bus = [1	0.903	0	0	0	51	27	0	0	2
2	1	0	0	0	20	9	0	0	3
3	1	0	0	0	39	10	0	0	3
4	0.967	0	-9	0	30	12	0	0	2
5	1	0	0	0	0	0	0	0.4	3
6	0.948	0	0	0	52	22	0	0	2
7	1	0	0	0	19	2	0	0	3
8	1.003	0	-28	0	0	0	0	0	2
9	1	0	0	0	0	0	0	0	3
10	1.044	0	450	0	0	0	0	0	2
11	1	0	0	0	70	23	0	0	3
12	0.944	0	85	0	47	10	0	0	2
13	1	0	0	0	34	16	0	0	3
14	1	0	0	0	14	0.1	0	0	3
15	0.919	0	0	0	90	30	0	0	2
16	1	0	0	0	25	10	0	0	3
17	1	0	0	0	11	3	0	0	3
18	0.924	0	0	0	60	34	0	0	2
19	0.911	0	0	0	45	25	0	0	2
20	1	0	0	0	18	3	0	0	3
21	1	0	0	0	14	8	0	0	3
22	1	0	0	0	10	5	0	0	3
23	1	0	0	0	7	3	0	0	3
24	0.98	0	-13	0	0	0	0	0	2
25	1.049	0	220	0	0	0	0	0	2
26	1.015	0	314	0	0	0	0	0	2
27	0.937	0	-9	0	62	13	0	0	2
28	1	0	0	0	17	7	0	0	3
29	1	0	0	0	24	4	0	0	3
30	1	0	0	0	0	0	0	0	3
31	0.924	0	7	0	43	27	0	0	2
32	0.93	0	0	0	59	23	0	0	2
33	1	0	0	0	23	9	0	0	3
34	0.932	0	0	0	59	26	0	0.14	2
35	1	0	0	0	33	9	0	0	3
36	0.926	0	0	0	31	17	0	0	2
37	1	0	0	0	0	0	0	0.25	3
38	1	0	0	0	0	0	0	0	3
39	1	0	0	0	27	11	0	0	3
40	0.894	0	-46	0	20	23	0	0	2
41	1	0	0	0	37	10	0	0	3
42	0.916	0	-59	0	37	23	0	0	2
43	1	0	0	0	18	7	0	0	3
44	1	0	0	0	16	8	0	0.1	3
45	1	0	0	0	53	22	0	0.1	3
46	0.984	0	19	0	28	10	0	0.1	2
47	1	0	0	0	34	0	0	0	3
48	1	0	0	0	20	11	0	0.15	3
49	1.012	0	204	0	87	30	0	0	2
50	1	0	0	0	17	4	0	0	3
51	1	0	0	0	17	8	0	0	3
52	1	0	0	0	18	5	0	0	3
53	1	0	0	0	23	11	0	0	3
54	0.922	0	48	0	113	32	0	0	2
55	0.918	0	0	0	63	22	0	0	2
56	0.921	0	0	0	84	18	0	0	2
57	1	0	0	0	12	3	0	0	3
58	1	0	0	0	12	3	0	0	3
59	0.967	0	155	0	277	113	0	0	2
60	1	0	0	0	78	3	0	0	3
61	0.989	0	160	0	0	0	0	0	2
62	0.991	0	0	0	77	14	0	0	2
63	1	0	0	0	0	0	0	0	3
64	1	0	0	0	0	0	0	0	3
65	1.004	0	391	0	0	0	0	0	2
66	1.049	0	392	0	39	18	0	0	2
67	1	0	0	0	28	7	0	0	3
68	1	0	0	0	0	0	0	0	3
69	1.035	0	0	0	0	0	0	0	1
70	0.977	0	0	0	66	20	0	0	2
71	1	0	0	0	0	0	0	0	3
72	0.969	0	-12	0	0	0	0	0	2
73	0.983	0	-6	0	0	0	0	0	2
74	0.95	0	0	0	68	27	0	0.12	2
75	1	0	0	0	47	11	0	0	3
76	0.941	0	0	0	68	36	0	0	2
77	1.003	0	0	0	61	28	0	0	2
78	1	0	0	0	71	26	0	0	3
79	1	0	0	0	39	32	0	0.2	3
80	1.039	0	477	0	130	26	0	0	2
81	1	0	0	0	0	0	0	0	3
82	1	0	0	0	54	27	0	0.2	3
83	1	0	0	0	20	10	0	0.1	3
84	1	0	0	0	11	7	0	0	3
85	0.985	0	0	0	24	15	0	0	2
86	1	0	0	0	21	10	0	0	3
87	1.015	0	0	0	0	0	0	0	2
88	1	0	0	0	48	10	0	0	3
89	0.994	0	607	0	0	0	0	0	2
90	0.984	0	-85	0	78	42	0	0	2
91	0.979	0	-10	0	0	0	0	0	2
92	0.989	0	0	0	65	10	0	0	2
93	1	0	0	0	12	7	0	0	3
94	1	0	0	0	30	16	0	0	3
95	1	0	0	0	42	31	0	0	3
96	1	0	0	0	38	15	0	0	3
97	1	0	0	0	15	9	0	0	3
98	1	0	0	0	34	8	0	0	3
99	1.007	0	-42	0	0	0	0	0	2
100	1.015	0	252	0	37	18	0	0	2
101	1	0	0	0	22	15	0	0	3
102	1	0	0	0	5	3	0	0	3
103	1.003	0	40	0	23	16	0	0	2
104	0.958	0	0	0	38	25	0	0	2
105	0.948	0	0	0	31	26	0	0.2	2
106	1	0	0	0	43	16	0	0	3
107	0.925	0	-22	0	28	12	0	0.06	2
108	1	0	0	0	2	0.1	0	0	3
109	1	0	0	0	8	3	0	0	3
110	0.948	0	0	0	39	30	0	0.06	2
111	0.96	0	36	0	0	0	0	0	2
112	0.936	0	-43	0	25	13	0	0	2
113	0.954	0	-6	0	0	0	0	0	2
114	1	0	0	0	8	3	0	0	3
115	1	0	0	0	22	7	0	0	3
116	1.003	0	-184	0	0	0	0	0	2
117	1	0	0	0	20	8	0	0	3
118	1	0	0	0	33	15	0	0	3];

line = [1	2	0.0303	0.0999	0.0127	0	0
1	3	0.0129	0.0424	0.0054	0	0
2	12	0.0187	0.0616	0.0078	0	0
3	5	0.0241	0.108	0.0142	0	0
3	12	0.0434	0.16	0.0203	0	0
4	11	0.0209	0.0688	0.0087	0	0
4	5	0.0018	0.008	0.001	0	0
5	11	0.0203	0.0682	0.0087	0	0
5	6	0.0119	0.054	0.0071	0	0
6	7	0.0045	0.0208	0.0027	0	0
7	12	0.0086	0.034	0.0043	0	0
8	30	0.0043	0.0504	0.257	0	0
105	106	0.014	0.0547	0.0072	0	0
8	9	0.0024	0.0305	0.581	0	0
9	10	0.0026	0.0322	0.615	0	0
11	12	0.0059	0.0196	0.0025	0	0
11	13	0.0222	0.0731	0.0094	0	0
12	16	0.0212	0.0834	0.0107	0	0
12	117	0.0329	0.14	0.0179	0	0
12	14	0.0215	0.0707	0.0091	0	0
13	15	0.0744	0.2444	0.0313	0	0
14	15	0.0595	0.195	0.0251	0	0
15	17	0.0132	0.0437	0.0222	0	0
15	19	0.012	0.0394	0.005	0	0
15	33	0.038	0.1244	0.016	0	0
16	17	0.0454	0.1801	0.0233	0	0
17	113	0.0091	0.0301	0.0038	0	0
17	18	0.0123	0.0505	0.0064	0	0
17	31	0.0474	0.1563	0.02	0	0
18	19	0.0111	0.0493	0.0057	0	0
19	20	0.0252	0.117	0.0149	0	0
19	34	0.0752	0.247	0.0316	0	0
20	21	0.0183	0.0849	0.0108	0	0
21	22	0.0209	0.097	0.0123	0	0
22	23	0.0342	0.159	0.0202	0	0
23	32	0.0317	0.1153	0.0586	0	0
23	24	0.0135	0.0492	0.0249	0	0
23	25	0.0156	0.08	0.0432	0	0
24	70	0.1022	0.4115	0.051	0	0
24	72	0.0488	0.196	0.0244	0	0
25	27	0.0318	0.163	0.0882	0	0
105	107	0.053	0.183	0.0236	0	0
26	30	0.0079	0.086	0.454	0	0
27	32	0.0229	0.0755	0.00961	0	0
27	115	0.0164	0.0741	0.0099	0	0
27	28	0.0191	0.0855	0.0188	0	0
28	29	0.0237	0.0943	0.0119	0	0
29	31	0.0108	0.0331	0.0041	0	0
30	38	0.0046	0.054	0.211	0	0
105	108	0.0261	0.0703	0.0092	0	0
31	32	0.0298	0.0985	0.0125	0	0
32	113	0.0615	0.203	0.0259	0	0
32	114	0.0135	0.0612	0.0081	0	0
33	37	0.0415	0.142	0.0183	0	0
34	36	0.0087	0.0268	0.0028	0	0
34	37	0.0026	0.0094	0.0049	0	0
34	43	0.0413	0.1681	0.0211	0	0
35	36	0.0022	0.0102	0.0013	0	0
35	37	0.011	0.0497	0.0066	0	0
37	39	0.0321	0.106	0.0135	0	0
37	40	0.0593	0.168	0.021	0	0
106	107	0.053	0.183	0.0236	0	0
38	65	0.009	0.0986	0.523	0	0
39	40	0.0184	0.0605	0.0077	0	0
40	41	0.0145	0.0487	0.0061	0	0
40	42	0.0555	0.183	0.0233	0	0
41	42	0.041	0.135	0.0172	0	0
42	49	0.0358	0.161	0.086	0	0
43	44	0.0608	0.2454	0.0303	0	0
44	45	0.0224	0.0901	0.0112	0	0
45	46	0.04	0.1356	0.0166	0	0
45	49	0.0684	0.186	0.0222	0	0
46	47	0.038	0.127	0.0158	0	0
46	48	0.0601	0.189	0.0236	0	0
47	49	0.0191	0.0625	0.008	0	0
47	69	0.0844	0.2778	0.0355	0	0
48	49	0.0179	0.0505	0.0063	0	0
49	50	0.0267	0.0752	0.0093	0	0
49	51	0.0486	0.137	0.0171	0	0
49	66	0.009	0.0459	0.0248	0	0
49	69	0.0985	0.324	0.0414	0	0
49	54	0.0398	0.145	0.0734	0	0
50	57	0.0474	0.134	0.0166	0	0
51	52	0.0303	0.0588	0.007	0	0
51	58	0.0255	0.0719	0.0089	0	0
52	53	0.0405	0.1635	0.0202	0	0
53	54	0.0263	0.122	0.0155	0	0
54	55	0.0169	0.0707	0.0101	0	0
54	56	0.0027	0.0095	0.0036	0	0
54	59	0.0503	0.2293	0.0299	0	0
55	56	0.0048	0.0151	0.0019	0	0
55	59	0.0473	0.2158	0.0282	0	0
56	57	0.0343	0.0966	0.0121	0	0
56	58	0.0343	0.0966	0.0121	0	0
56	59	0.0407	0.12	0.0552	0	0
59	60	0.0317	0.145	0.0188	0	0
59	61	0.0328	0.15	0.0194	0	0
60	61	0.0026	0.0135	0.0073	0	0
60	62	0.0123	0.0561	0.0073	0	0
61	62	0.0082	0.0376	0.0049	0	0
66	62	0.0482	0.218	0.0289	0	0
62	67	0.0258	0.117	0.0155	0	0
63	64	0.0017	0.02	0.108	0	0
108	109	0.0105	0.0288	0.0038	0	0
64	65	0.0027	0.0302	0.19	0	0
109	110	0.0278	0.0762	0.0101	0	0
110	111	0.022	0.0755	0.01	0	0
65	68	0.0014	0.016	0.319	0	0
66	67	0.0224	0.1015	0.0134	0	0
68	116	0.0003	0.004	0.082	0	0
110	112	0.0247	0.064	0.031	0	0
68	81	0.0017	0.0202	0.404	0	0
69	75	0.0405	0.122	0.062	0	0
69	77	0.0309	0.101	0.0519	0	0
69	70	0.03	0.127	0.061	0	0
70	71	0.0088	0.0355	0.0043	0	0
70	74	0.0401	0.1323	0.0168	0	0
70	75	0.0428	0.141	0.018	0	0
71	72	0.0446	0.18	0.0222	0	0
71	73	0.0087	0.0454	0.0059	0	0
74	75	0.0123	0.0406	0.0051	0	0
75	118	0.0145	0.0481	0.0059	0	0
75	77	0.0601	0.1999	0.0249	0	0
76	118	0.0164	0.0054	0.0068	0	0
76	77	0.0444	0.0148	0.0184	0	0
77	78	0.0037	0.0124	0.0063	0	0
77	80	0.0108	0.0331	0.035	0	0
77	82	0.0298	0.0853	0.0409	0	0
78	79	0.0054	0.0244	0.0032	0	0
79	80	0.0156	0.0704	0.0093	0	0
80	96	0.0356	0.182	0.0247	0	0
80	97	0.0183	0.934	0.0127	0	0
80	98	0.0238	0.108	0.0143	0	0
80	99	0.0454	0.206	0.0273	0	0
114	115	0.0023	0.0104	0.0014	0	0
82	96	0.0162	0.053	0.0272	0	0
82	83	0.0112	0.0366	0.019	0	0
83	84	0.0625	0.132	0.0129	0	0
83	85	0.043	0.148	0.174	0	0
84	85	0.0302	0.0641	0.0061	0	0
86	85	0.035	0.123	0.0138	0	0
88	85	0.02	0.102	0.0138	0	0
85	90	0.0239	0.173	0.0235	0	0
86	87	0.0282	0.2074	0.0222	0	0
88	89	0.0139	0.0712	0.00961	0	0
89	90	0.0158	0.0653	0.0794	0	0
89	92	0.0079	0.038	0.0481	0	0
90	91	0.0254	0.0836	0.0107	0	0
91	92	0.0387	0.1272	0.0163	0	0
92	93	0.0258	0.0848	0.0109	0	0
92	94	0.0481	0.158	0.0203	0	0
92	100	0.0648	0.295	0.0386	0	0
92	102	0.0123	0.0559	0.0073	0	0
93	94	0.0223	0.0732	0.0094	0	0
94	95	0.0132	0.0434	0.0055	0	0
94	96	0.0269	0.0869	0.0115	0	0
94	100	0.0178	0.058	0.0302	0	0
95	96	0.0171	0.0547	0.0074	0	0
96	97	0.0173	0.0885	0.012	0	0
98	100	0.0397	0.179	0.0238	0	0
99	100	0.018	0.0813	0.0108	0	0
100	101	0.0277	0.1262	0.0164	0	0
100	103	0.016	0.0525	0.0268	0	0
100	104	0.0451	0.204	0.027	0	0
100	106	0.0605	0.229	0.031	0	0
101	102	0.0246	0.112	0.0147	0	0
103	110	0.0391	0.1813	0.023	0	0
103	104	0.0466	0.1584	0.0203	0	0
103	105	0.0535	0.1625	0.0204	0	0
104	105	0.0099	0.0378	0.0049	0	0
5	8	0	0.0267	0	0.9	0
25	26	0	0.0382	0	0.952	0
17	30	0	0.0388	0	0.98	0
37	38	0	0.0375	0	1.02	0
59	63	0	0.0386	0	0.91	0
61	64	0	0.0268	0	0.972	0
65	66	0	0.037	0	1.12	0
68	69	0	0.037	0	0.912	0
80	81	0	0.037	0	0.978	0];